1
9
.tran 10u 30m 1m
3
2
R3
I
2
R4
I
2
R9
I
